Version 4.1
SHEET 1 1924 1124
WIRE 1136 -208 960 -208
WIRE 1360 -208 1136 -208
WIRE 960 -128 960 -208
WIRE 1360 -128 1360 -208
WIRE 1088 -48 1008 -48
WIRE 1312 -48 1088 -48
WIRE 64 -32 48 -32
WIRE 304 -32 64 -32
WIRE 544 -32 304 -32
WIRE 960 48 960 -32
WIRE 1088 48 1088 -48
WIRE 1088 48 960 48
WIRE 1360 80 1360 -32
WIRE 1456 80 1360 80
WIRE 1536 80 1456 80
WIRE 1456 144 1456 80
WIRE 1472 144 1456 144
WIRE 1584 144 1584 96
WIRE 1584 144 1536 144
WIRE 48 160 48 -32
WIRE 304 160 304 -32
WIRE 1360 160 1360 80
WIRE 544 176 544 -32
WIRE 960 176 960 48
WIRE 64 208 48 208
WIRE 320 208 304 208
WIRE 1584 208 1584 144
WIRE 560 224 544 224
WIRE 0 240 -16 240
WIRE 256 240 0 240
WIRE 496 240 256 240
WIRE -16 256 -16 240
WIRE 48 256 -16 256
WIRE 496 256 496 240
WIRE 912 256 784 256
WIRE 1360 256 1296 256
WIRE 1584 272 1584 208
WIRE 1808 272 1584 272
WIRE 1408 320 1408 176
WIRE 1456 320 1408 320
WIRE 48 352 48 256
WIRE 544 352 544 272
WIRE 544 352 416 352
WIRE 304 384 304 256
WIRE 304 384 208 384
WIRE 960 384 960 272
WIRE 1296 384 1296 256
WIRE 1296 384 960 384
WIRE 304 416 304 384
WIRE 544 416 544 352
WIRE 960 416 960 384
WIRE 1296 416 1296 384
WIRE 1584 416 1584 272
WIRE 1808 416 1808 272
WIRE 544 432 544 416
WIRE 320 464 304 464
WIRE 208 496 208 384
WIRE 256 496 208 496
WIRE 496 496 256 496
WIRE 912 496 496 496
WIRE 1120 496 912 496
WIRE 1248 496 1120 496
WIRE 1536 496 1248 496
WIRE 304 576 304 512
WIRE 544 640 544 512
WIRE 960 640 960 512
WIRE 1296 640 1296 512
WIRE 1584 640 1584 512
WIRE 560 688 544 688
WIRE 416 720 416 352
WIRE 496 720 416 720
WIRE 912 720 496 720
WIRE 1136 720 912 720
WIRE 1248 720 1136 720
WIRE 1536 720 1248 720
WIRE 544 768 544 736
WIRE 960 768 960 736
WIRE 1296 768 1296 736
WIRE 1584 768 1584 736
WIRE 784 912 784 256
WIRE 1808 912 1808 496
WIRE 1808 912 784 912
FLAG 48 432 0
FLAG 64 208 vdd
FLAG 320 208 vdd
FLAG 560 224 vdd
FLAG 320 464 0
FLAG 544 464 0
FLAG 304 576 0
FLAG 544 768 0
FLAG 560 688 0
FLAG 960 464 0
FLAG 960 688 0
FLAG 960 224 0
FLAG 960 768 0
FLAG 1296 768 0
FLAG 1584 768 0
FLAG 1296 688 0
FLAG 1584 688 0
FLAG 1296 464 0
FLAG 1584 464 0
FLAG 1360 208 0
FLAG 1456 400 0
FLAG 960 -80 vdd
FLAG 1360 -80 vdd
FLAG 1584 48 vdd
FLAG 1584 0 vdd
FLAG 1808 976 0
FLAG 720 1040 0
FLAG 720 960 vdd
FLAG 64 -32 vdd
FLAG 1136 -208 vdd
FLAG 1120 496 Vbias3
FLAG 1136 720 Vbias4
FLAG 1584 208 Vout_Gain
SYMBOL res 32 336 R0
SYMATTR InstName R1
SYMATTR Value 200k
SYMBOL pmos4 0 160 R0
SYMATTR InstName M1
SYMATTR Value2 l=0.6u w=6.6u
SYMBOL pmos4 256 160 R0
SYMATTR InstName M2
SYMATTR Value2 l=0.6u w=6.6u
SYMBOL pmos4 496 176 R0
SYMATTR InstName M3
SYMATTR Value2 l=0.6u w=6.6u
SYMBOL nmos4 256 416 R0
SYMATTR InstName M5
SYMATTR Value2 l=6.6u w=3u
SYMBOL nmos4 496 416 R0
SYMATTR InstName M6
SYMATTR Value2 l=0.6u w=3u
SYMBOL nmos4 496 640 R0
SYMATTR InstName M7
SYMATTR Value2 l=0.6u w=3u
SYMBOL nmos4 912 416 R0
SYMATTR InstName M10
SYMATTR Value2 l=0.6u w=3u
SYMBOL nmos4 912 640 R0
SYMATTR InstName M11
SYMATTR Value2 l=0.6u w=3u
SYMBOL nmos4 912 176 R0
SYMATTR InstName M12
SYMATTR Value2 l=0.6u w=3u
SYMBOL nmos4 1408 256 R180
SYMATTR InstName M13
SYMATTR Value2 l=0.6u w=3u
SYMBOL nmos4 1248 416 R0
SYMATTR InstName M16
SYMATTR Value2 l=0.6u w=3u
SYMBOL nmos4 1248 640 R0
SYMATTR InstName M17
SYMATTR Value2 l=0.6u w=3u
SYMBOL nmos4 1536 416 R0
SYMATTR InstName M19
SYMATTR Value2 l=0.6u w=30u
SYMBOL nmos4 1536 640 R0
SYMATTR InstName M20
SYMATTR Value2 l=0.6u w=30u
SYMBOL voltage 1456 304 R0
WINDOW 123 24 124 Left 2
WINDOW 39 0 0 Left 0
SYMATTR Value2 AC 1
SYMATTR InstName V2
SYMATTR Value 2.5
SYMBOL pmos4 1312 -128 R0
SYMATTR InstName M14
SYMATTR Value2 l=0.6u w=6.6u
SYMBOL pmos4 1008 -128 M0
SYMATTR InstName M15
SYMATTR Value2 l=0.6u w=6.6u
SYMBOL pmos4 1536 0 R0
SYMATTR InstName M18
SYMATTR Value2 l=0.6u w=66u
SYMBOL cap 1792 912 R0
SYMATTR InstName C1
SYMATTR Value 10µ
SYMBOL cap 1472 128 M90
WINDOW 0 0 32 VBottom 2
WINDOW 3 32 32 VTop 2
SYMATTR InstName C2
SYMATTR Value 10p
SYMBOL res 1792 400 R0
SYMATTR InstName R2
SYMATTR Value 100Meg
SYMBOL voltage 720 944 R0
SYMATTR InstName vdd
SYMATTR Value 5
TEXT 984 1024 Left 2 !.include C5_models.txt\n*.op\n*.dc V1 0 5\n.ac dec 100 1000 10000MEG
TEXT 984 984 Left 2 !.OPTIONS ALLOW_AMBIGUOUS_MODELS
